/*--------------------------------*- C++ -*----------------------------------*\
  =========                 |
  \\      /  F ield         | OpenFOAM: The Open Source CFD Toolbox
   \\    /   O peration     | Website:  https://openfoam.org
    \\  /    A nd           | Version:  7
     \\/     M anipulation  |
\*---------------------------------------------------------------------------*/
FoamFile
{
    version     2.0;
    format      binary;
    class       polyBoundaryMesh;
    location    "constant/polyMesh";
    object      boundary;
}
// * * * * * * * * * * * * * * * * * * * * * * * * * * * * * * * * * * * * * //

10
(
    inlet
    {
        type            patch;
        nFaces          24;
        startFace       242548;
    }
    fixedWall
    {
        type            wall;
        inGroups        List<word> 1(wall);
        nFaces          18;
        startFace       242572;
    }
    pilot
    {
        type            patch;
        nFaces          150;
        startFace       242590;
    }
    airBC
    {
        type            patch;
        nFaces          60;
        startFace       242740;
    }
    wall
    {
        type            wall;
        inGroups        List<word> 1(wall);
        nFaces          515;
        startFace       242800;
    }
    outlet
    {
        type            patch;
        nFaces          237;
        startFace       243315;
    }
    Axis
    {
        type            symmetryPlane;
        inGroups        List<word> 1(symmetryPlane);
        nFaces          0;
        startFace       243552;
    }
    frontAndBack
    {
        type            empty;
        inGroups        List<word> 1(empty);
        nFaces          0;
        startFace       243552;
    }
    frontAndBack_pos
    {
        type            wedge;
        inGroups        List<word> 1(wedge);
        nFaces          121650;
        startFace       243552;
    }
    frontAndBack_neg
    {
        type            wedge;
        inGroups        List<word> 1(wedge);
        nFaces          121650;
        startFace       365202;
    }
)

// ************************************************************************* //
