/*--------------------------------*- C++ -*----------------------------------*\
  =========                 |
  \\      /  F ield         | OpenFOAM: The Open Source CFD Toolbox
   \\    /   O peration     | Website:  https://openfoam.org
    \\  /    A nd           | Version:  7
     \\/     M anipulation  |
\*---------------------------------------------------------------------------*/
FoamFile
{
    version     2.0;
    format      ascii;
    class       dictionary;
    object      blockMeshDict;
}
// * * * * * * * * * * * * * * * * * * * * * * * * * * * * * * * * * * * * * //

convertToMeters 1e-03;

vertices
(
    ( 8      0     -1) // 0
    ( 9      0     -1) // 1
    (60      0     -1) // 2
    (150      0     -1) // 3
 
    ( 0      4     -1) // 4
    ( 8      4     -1) // 5
    ( 9      4     -1) // 6
    (60      4     -1) // 7
    (150      4     -1) // 8
 
    ( 0     200    -1) // 9
    ( 8     200    -1) // 10
    ( 9     200    -1) // 11
    (60     200    -1) // 12
    (150    200    -1) // 13
 
 
    ( 8      0      1) // 14
    ( 9      0      1) // 15
    (60      0      1) // 16
    (150     0      1) // 17
 
    ( 0      4      1) // 18
    ( 8      4      1) // 19
    ( 9      4      1) // 20
    (60      4      1) // 21
    (150     4      1) // 22
 
    ( 0     200     1) // 23
    ( 8     200     1) // 24
    ( 9     200     1) // 25
    (60     200     1) // 26
    (150    200     1) // 27
);

blocks
(
    // hex (0 1  6  5 14 15 20 19) ( 2  15  1) simpleGrading (1 1 1) // 0
    hex (1 2  7  6 15 16 21 20) (150  15  1) simpleGrading (1 1 1) // 1
    hex (2 3  8  7 16 17 22 21) (60  15  1) simpleGrading (2 1 1) // 2
    hex (4 5 10  9 18 19 24 23) (24  500 1) simpleGrading (1 1 1) // 3
    hex (5 6 11 10 19 20 25 24) (3  500 1) simpleGrading (1 1 1) // 4
    hex (6 7 12 11 20 21 26 25) (150 500 1) simpleGrading (1 1 1) // 5
    hex (7 8 13 12 21 22 27 26) (60 500 1) simpleGrading (2 1 1) // 6
);

edges
(
);

boundary
(
    inlet
    {
        type patch;
        faces
        (
            (4 5 19 18)
        );
    }

    fixedWall
    {
        type wall;
        faces
        (
            // (5 0 14 19)
            // (0 1 15 14)
            (5 6 20 19)
            (6 1 15 20)
        );
    }

    pilot
    {
        type patch;
        faces
        (
            (1 2 16 15)
        );
    }

    airBC
    {
        type patch;
        faces
        (
            (2  3 17 16)
            //(3  8 22 17)
        );
    }

    wall
    {
        type wall;
        faces
        (
            (3 8 22 17)
            (8 13 27 22)
        );
    }

    outlet
    {
        type patch;
        faces
        (
            ( 9 10 24 23)
            (10 11 25 24)
            (11 12 26 25)
            (12 13 27 26)
        );
    }

    Axis
    {
        type symmetryPlane;
        faces
        (
            (9 4 18 23)
        );
    }

    frontAndBack
    {
        type empty;
        faces
        (
            // (5 6 1 0)
            (6 7 2 1)
            (7 8 3 2)
            (9 10 5 4)
            (10 11 6 5)
            (11 12 7 6)
            (12 13 8 7)

            // (14 15 20 19)
            (15 16 21 20)
            (16 17 22 21)
            (18 19 24 23)
            (19 20 25 24)
            (20 21 26 25)
            (21 22 27 26)
        );
    }
);

mergePatchPairs
(
);

// ************************************************************************* //