/*--------------------------------*- C++ -*----------------------------------*\
  =========                 |
  \\      /  F ield         | OpenFOAM: The Open Source CFD Toolbox
   \\    /   O peration     | Website:  https://openfoam.org
    \\  /    A nd           | Version:  7
     \\/     M anipulation  |
\*---------------------------------------------------------------------------*/
FoamFile
{
    version     2.0;
    format      ascii;
    class       dictionary;
    location    "system";
    object      fvOptions;
}
// * * * * * * * * * * * * * * * * * * * * * * * * * * * * * * * * * * * * * //
/*
energySource1
{
    type            scalarSemiImplicitSource;
    debug           true;
    active          true;

    scalarSemiImplicitSourceCoeffs
    {
        timeStart       0;
        duration        0.88;
        selectionMode   points;
        points
        (
            (0.01 0.025 0)
        );
        volumeMode      absolute;
        injectionRateSuSp
        {
            h           (0.1 0);
        }
    }
}
*/
